/*--------------------------------*- C++ -*----------------------------------*\
  =========                 |
  \\      /  F ield         | OpenFOAM: The Open Source CFD Toolbox
   \\    /   O peration     | Website:  https://openfoam.org
    \\  /    A nd           | Version:  14
     \\/     M anipulation  |
\*---------------------------------------------------------------------------*/
FoamFile
{
    format      ascii;
    class       volScalarField;
    location    "0";
    object      internalE;
}
// * * * * * * * * * * * * * * * * * * * * * * * * * * * * * * * * * * * * * //

dimensions      [kineticEnergyDensity];

internalField   uniform 0;

boundaryField
{
    outlet
    {
        type            zeroGradient;
    }

    inlet
    {
        type            zeroGradient;
    }

    sides
    {
        type            zeroGradient;
    }
}

// ************************************************************************* //
